Version 4
SHEET 1 4060 744
WIRE 2048 -128 2016 -128
WIRE 2224 -128 2112 -128
WIRE 1952 -112 1872 -112
WIRE 1872 -96 1872 -112
WIRE 2224 -64 2224 -128
WIRE 2272 -64 2224 -64
WIRE 2016 0 2016 -128
WIRE 2048 0 2016 0
WIRE 2224 0 2224 -64
WIRE 2224 0 2128 0
WIRE 1872 16 1872 -16
WIRE 2240 64 2048 64
WIRE 1808 112 1664 112
WIRE 1888 112 1888 96
WIRE 1888 112 1808 112
WIRE 2016 112 2016 0
WIRE 2016 112 1888 112
WIRE 2240 112 2240 64
WIRE 2240 112 2224 112
WIRE 2048 128 2048 64
WIRE 2064 128 2048 128
WIRE 2272 128 2272 -64
WIRE 2272 128 2256 128
WIRE 2320 128 2272 128
WIRE 2352 128 2320 128
WIRE 2256 144 2256 128
WIRE 2256 144 2224 144
WIRE 1664 160 1664 112
WIRE 2016 160 2016 112
WIRE 2064 160 2016 160
WIRE 1808 176 1808 112
WIRE 1888 176 1888 112
WIRE 1952 192 1952 -112
WIRE 2064 192 1952 192
WIRE 2048 272 2048 128
WIRE 1664 288 1664 240
WIRE 1808 288 1808 256
WIRE 1808 288 1664 288
WIRE 1824 288 1808 288
WIRE 1888 288 1888 240
WIRE 1888 288 1824 288
WIRE 1824 320 1824 288
FLAG 1824 320 0
FLAG 1872 16 0
FLAG 1888 112 v2
FLAG 2048 272 0
FLAG 2320 128 Vout
SYMBOL cap 1872 176 R0
SYMATTR InstName C2
SYMATTR Value 375pF
SYMBOL voltage 1872 -112 R0
WINDOW 123 0 0 Left 2
WINDOW 39 0 0 Left 2
SYMATTR InstName V2
SYMATTR Value 5
SYMBOL res 2144 -16 R90
WINDOW 0 0 56 VBottom 2
WINDOW 3 32 56 VTop 2
SYMATTR InstName R8
SYMATTR Value 500k
SYMBOL current 1808 176 R0
WINDOW 0 24 80 Left 2
WINDOW 3 24 0 Left 2
WINDOW 123 -108 84 Left 2
WINDOW 39 0 0 Left 2
SYMATTR InstName I2
SYMATTR Value ""
SYMATTR Value2 AC 22E-9
SYMBOL cap 2112 -144 R90
WINDOW 0 0 32 VBottom 2
WINDOW 3 32 32 VTop 2
SYMATTR InstName C1
SYMATTR Value 2pF
SYMBOL res 1648 144 R0
WINDOW 3 -77 32 Left 2
SYMATTR Value 100Meg
SYMATTR InstName R2
SYMBOL AutoGenerated\\ADA4530 2144 160 R0
SYMATTR InstName U3
TEXT 2128 504 Left 2 !;ac dec 100 100 1Meg
TEXT 2128 424 Left 2 !.inc D:\\Dropbox\\QuadFrontEnd\\spice-models\\ada4096.cir
TEXT 2128 464 Left 2 !.lib opamp.sub
TEXT 2912 336 Left 2 !.measure ns INTEG V(n003)\n.measure sig_pow param -20*log10(ns)
TEXT 2912 392 Left 2 ;You can see these in the log. Ctrl + L
TEXT 3376 352 Left 2 ;In order to get SNR, manually compute sig_pow/noise_pow. \nnoise_pow found in sister doc foo_noise.asc
TEXT 3072 256 Left 2 ;Integrated Signal Power; 34.7 dB
TEXT 2128 392 Left 2 !.inc D:\\Dropbox\\QuadFrontEnd\\spice-models\\ad8607.cir
TEXT 2128 360 Left 2 !.inc D:\\Dropbox\\QuadFrontEnd\\spice-models\\ada4530.cir
TEXT 2208 312 Left 2 !.noise V(Vout) v2 dec 100 10 1280
